************************************************************************************
* TSMC Library/IP Product
* Filename: tcbn28hpmbwp35_110a.spi
* Technology: CLN28HM
* Product Type: Standard Cell
* Product Name: tcbn28hpmbwp35
* Version: 110a
*************************************************************************************
**
*  STATEMENT OF USE
*
*  This information contains confidential and proprietary information of TSMC.
*  No part of this information may be reproduced, transmitted, transcribed,
*  stored in a retrieval system, or translated into any human or computer
*  language, in any form or by any means, electronic, mechanical, magnetic,
*  optical, chemical, manual, or otherwise, without the prior written permission
*  of TSMC.  This information was prepared for informational purpose and is for
*  use by TSMC's customers only.  TSMC reserves the right to make changes in the
*  information at any time and without notice.
*
**************************************************************************************
***ewave
***^XMM--->MM
***ewave
.subckt AN2D0BWP35 A1 A2 Z VDD VSS
MM9 net14 A2 VSS VSS nch_mac l=35.0n w=140.0n m=1
MM8 net26 A1 net14 VSS nch_mac l=35.0n w=140.0n m=1
MM5 Z net26 VSS VSS nch_mac l=35.0n w=140.0n m=1
MM6 net26 A1 VDD VDD pch_mac l=35.0n w=170.0n m=1
MM7 net26 A2 VDD VDD pch_mac l=35.0n w=170.0n m=1
MM4 Z net26 VDD VDD pch_mac l=35.0n w=170.0n m=1
.ends
.subckt AN2D16BWP35 A1 A2 Z VDD VSS
MM9 net14 A2 VSS VSS nch_mac l=35.0n w=280.0n m=5
MM8 net26 A1 net14 VSS nch_mac l=35.0n w=280.0n m=5
MM5 Z net26 VSS VSS nch_mac l=35.0n w=280.0n m=16
MM6 net26 A1 VDD VDD pch_mac l=35.0n w=340.0n m=5
MM7 net26 A2 VDD VDD pch_mac l=35.0n w=340.0n m=5
MM4 Z net26 VDD VDD pch_mac l=35.0n w=340.0n m=16
.ends
.subckt AN2D1BWP35 A1 A2 Z VDD VSS
MM9 net14 A2 VSS VSS nch_mac l=35.0n w=140.0n m=1
MM8 net26 A1 net14 VSS nch_mac l=35.0n w=140.0n m=1
MM5 Z net26 VSS VSS nch_mac l=35.0n w=280.0n m=1
MM6 net26 A1 VDD VDD pch_mac l=35.0n w=170n m=1
MM7 net26 A2 VDD VDD pch_mac l=35.0n w=170.0n m=1
MM4 Z net26 VDD VDD pch_mac l=35.0n w=340.0n m=1
.ends
.subckt AN2D2BWP35 A1 A2 Z VDD VSS
MM9 net14 A2 VSS VSS nch_mac l=35.0n w=280.0n m=1
MM8 net26 A1 net14 VSS nch_mac l=35.0n w=280.0n m=1
MM5 Z net26 VSS VSS nch_mac l=35.0n w=280.0n m=2
MM6 net26 A1 VDD VDD pch_mac l=35.0n w=340.0n m=1
MM7 net26 A2 VDD VDD pch_mac l=35.0n w=340.0n m=1
MM4 Z net26 VDD VDD pch_mac l=35.0n w=340.0n m=2
.ends
.subckt AN2D4BWP35 A1 A2 Z VDD VSS
MM0 net027 A2 VSS VSS nch_mac l=35.0n w=280.0n m=1
MM1 net26 A1 net027 VSS nch_mac l=35.0n w=280.0n m=1
MM9 net14 A2 VSS VSS nch_mac l=35.0n w=280.0n m=1
MM8 net26 A1 net14 VSS nch_mac l=35.0n w=280.0n m=1
MM5 Z net26 VSS VSS nch_mac l=35.0n w=280.0n m=4
MM6 net26 A1 VDD VDD pch_mac l=35.0n w=340.0n m=2
MM7 net26 A2 VDD VDD pch_mac l=35.0n w=340.0n m=2
MM4 Z net26 VDD VDD pch_mac l=35.0n w=340.0n m=4
.ends
.subckt AN2D6BWP35 A1 A2 Z VDD VSS
MM14 net036 A2 VSS VSS nch_mac l=35.0n w=280.0n m=1
MM15 net26 A1 net036 VSS nch_mac l=35.0n w=280.0n m=1
MM9 net14 A2 VSS VSS nch_mac l=35.0n w=280.0n m=1
MM8 net26 A1 net14 VSS nch_mac l=35.0n w=280.0n m=1
MM5 Z net26 VSS VSS nch_mac l=35.0n w=280.0n m=6
MM6 net26 A1 VDD VDD pch_mac l=35.0n w=340.0n m=2
MM7 net26 A2 VDD VDD pch_mac l=35.0n w=340.0n m=2
MM4 Z net26 VDD VDD pch_mac l=35.0n w=340.0n m=6
.ends
.subckt AN2D8BWP35 A1 A2 Z VDD VSS
MM3 net027 A2 VSS VSS nch_mac l=35.0n w=280.0n m=1
MM2 net26 A1 net027 VSS nch_mac l=35.0n w=280.0n m=1
MM0 net039 A2 VSS VSS nch_mac l=35.0n w=280.0n m=1
MM1 net26 A1 net039 VSS nch_mac l=35.0n w=280.0n m=1
MM9 net14 A2 VSS VSS nch_mac l=35.0n w=280.0n m=1
MM8 net26 A1 net14 VSS nch_mac l=35.0n w=280.0n m=1
MM5 Z net26 VSS VSS nch_mac l=35.0n w=280.0n m=8
MM6 net26 A1 VDD VDD pch_mac l=35.0n w=340.0n m=3
MM7 net26 A2 VDD VDD pch_mac l=35.0n w=340.0n m=3
MM4 Z net26 VDD VDD pch_mac l=35.0n w=340.0n m=8
.ends
.subckt AN2XD0BWP35 A1 A2 Z VDD VSS
MM9 net14 A2 VSS VSS nch_mac l=35.0n w=140.0n m=1
MM8 net26 A1 net14 VSS nch_mac l=35.0n w=140.0n m=1
MM5 Z net26 VSS VSS nch_mac l=35.0n w=140.0n m=1
MM6 net26 A1 VDD VDD pch_mac l=35.0n w=170.0n m=1
MM7 net26 A2 VDD VDD pch_mac l=35.0n w=170.0n m=1
MM4 Z net26 VDD VDD pch_mac l=35.0n w=170.0n m=1
.ends
.subckt AN2XD16BWP35 A1 A2 Z VDD VSS
MM9 net14 A2 VSS VSS nch_mac l=35.0n w=280.0n m=8
MM8 net26 A1 net14 VSS nch_mac l=35.0n w=280.0n m=8
MM5 Z net26 VSS VSS nch_mac l=35.0n w=280.0n m=16
MM6 net26 A1 VDD VDD pch_mac l=35.0n w=340.0n m=8
MM7 net26 A2 VDD VDD pch_mac l=35.0n w=340.0n m=8
MM4 Z net26 VDD VDD pch_mac l=35.0n w=340.0n m=16
.ends
.subckt AN2XD1BWP35 A1 A2 Z VDD VSS
MM9 net14 A2 VSS VSS nch_mac l=35.0n w=280.0n m=1
MM8 net26 A1 net14 VSS nch_mac l=35.0n w=280.0n m=1
MM5 Z net26 VSS VSS nch_mac l=35.0n w=280.0n m=1
MM6 net26 A1 VDD VDD pch_mac l=35.0n w=340.0n m=1
MM7 net26 A2 VDD VDD pch_mac l=35.0n w=340.0n m=1
MM4 Z net26 VDD VDD pch_mac l=35.0n w=340.0n m=1
.ends
.subckt AN2XD2BWP35 A1 A2 Z VDD VSS
MM9 net14 A2 VSS VSS nch_mac l=35.0n w=280.0n m=1
MM8 net26 A1 net14 VSS nch_mac l=35.0n w=280.0n m=1
MM5 Z net26 VSS VSS nch_mac l=35.0n w=280.0n m=2
MM6 net26 A1 VDD VDD pch_mac l=35.0n w=340.0n m=1
MM7 net26 A2 VDD VDD pch_mac l=35.0n w=340.0n m=1
MM4 Z net26 VDD VDD pch_mac l=35.0n w=340.0n m=2
.ends
.subckt AN2XD4BWP35 A1 A2 Z VDD VSS
MM0 net036 A2 VSS VSS nch_mac l=35.0n w=280.0n m=1
MM1 net26 A1 net036 VSS nch_mac l=35.0n w=280.0n m=1
MM9 net14 A2 VSS VSS nch_mac l=35.0n w=280.0n m=1
MM8 net26 A1 net14 VSS nch_mac l=35.0n w=280.0n m=1
MM5 Z net26 VSS VSS nch_mac l=35.0n w=280.0n m=4
MM6 net26 A1 VDD VDD pch_mac l=35.0n w=340.0n m=2
MM7 net26 A2 VDD VDD pch_mac l=35.0n w=340.0n m=2
MM4 Z net26 VDD VDD pch_mac l=35.0n w=340.0n m=4
.ends
.subckt AN2XD6BWP35 A1 A2 Z VDD VSS
MM9 net14 A2 VSS VSS nch_mac l=35.0n w=280.0n m=3
MM8 net26 A1 net14 VSS nch_mac l=35.0n w=280.0n m=3
MM5 Z net26 VSS VSS nch_mac l=35.0n w=280.0n m=6
MM6 net26 A1 VDD VDD pch_mac l=35.0n w=340.0n m=3
MM7 net26 A2 VDD VDD pch_mac l=35.0n w=340.0n m=3
MM4 Z net26 VDD VDD pch_mac l=35.0n w=340.0n m=6
.ends
.subckt AN2XD8BWP35 A1 A2 Z VDD VSS
MM9 net14 A2 VSS VSS nch_mac l=35.0n w=280.0n m=4
MM8 net26 A1 net14 VSS nch_mac l=35.0n w=280.0n m=4
MM5 Z net26 VSS VSS nch_mac l=35.0n w=280.0n m=8
MM6 net26 A1 VDD VDD pch_mac l=35.0n w=340.0n m=4
MM7 net26 A2 VDD VDD pch_mac l=35.0n w=340.0n m=4
MM4 Z net26 VDD VDD pch_mac l=35.0n w=340.0n m=8
.ends
.subckt AN3D0BWP35 A1 A2 A3 Z VDD VSS
MM13 net028 A2 net024 VSS nch_mac l=35.0n w=140.0n m=1
MM14 net26 A1 net028 VSS nch_mac l=35.0n w=140.0n m=1
MM12 net024 A3 VSS VSS nch_mac l=35.0n w=140.0n m=1
MM5 Z net26 VSS VSS nch_mac l=35.0n w=140.0n m=1
MM10 net26 A2 VDD VDD pch_mac l=35.0n w=170.0n m=1
MM4 Z net26 VDD VDD pch_mac l=35.0n w=170.0n m=1
MM15 net26 A3 VDD VDD pch_mac l=35.0n w=170.0n m=1
MM11 net26 A1 VDD VDD pch_mac l=35.0n w=170.0n m=1
.ends
.subckt AN3D16BWP35 A1 A2 A3 Z VDD VSS
MM13 net028 A2 net024 VSS nch_mac l=35.0n w=280.0n m=5
MM14 net26 A1 net028 VSS nch_mac l=35.0n w=280.0n m=5
MM12 net024 A3 VSS VSS nch_mac l=35.0n w=280.0n m=5
MM5 Z net26 VSS VSS nch_mac l=35.0n w=280.0n m=16
MM10 net26 A2 VDD VDD pch_mac l=35.0n w=340.0n m=5
MM4 Z net26 VDD VDD pch_mac l=35.0n w=340.0n m=16
MM15 net26 A3 VDD VDD pch_mac l=35.0n w=340.0n m=5
MM11 net26 A1 VDD VDD pch_mac l=35.0n w=340.0n m=5
.ends
.subckt AN3D1BWP35 A1 A2 A3 Z VDD VSS
MM13 net028 A2 net024 VSS nch_mac l=35.0n w=140.0n m=1
MM14 net26 A1 net028 VSS nch_mac l=35.0n w=140.0n m=1
MM12 net024 A3 VSS VSS nch_mac l=35.0n w=140.0n m=1
MM5 Z net26 VSS VSS nch_mac l=35.0n w=280.0n m=1
MM10 net26 A2 VDD VDD pch_mac l=35.0n w=170.0n m=1
MM4 Z net26 VDD VDD pch_mac l=35.0n w=340.0n m=1
MM15 net26 A3 VDD VDD pch_mac l=35.0n w=170.0n m=1
MM11 net26 A1 VDD VDD pch_mac l=35.0n w=170.0n m=1
.ends
.subckt AN3D2BWP35 A1 A2 A3 Z VDD VSS
MM13 net028 A2 net024 VSS nch_mac l=35.0n w=280.0n m=1
MM14 net26 A1 net028 VSS nch_mac l=35.0n w=280.0n m=1
MM12 net024 A3 VSS VSS nch_mac l=35.0n w=280.0n m=1
MM5 Z net26 VSS VSS nch_mac l=35.0n w=280.0n m=2
MM10 net26 A2 VDD VDD pch_mac l=35.0n w=340.0n m=1
MM4 Z net26 VDD VDD pch_mac l=35.0n w=340.0n m=2
MM15 net26 A3 VDD VDD pch_mac l=35.0n w=340.0n m=1
MM11 net26 A1 VDD VDD pch_mac l=35.0n w=340.0n m=1
.ends
.subckt AN3D4BWP35 A1 A2 A3 Z VDD VSS
MM0 net037 A2 net029 VSS nch_mac l=35.0n w=280.0n m=1
MM1 net26 A1 net037 VSS nch_mac l=35.0n w=280.0n m=1
MM2 net029 A3 VSS VSS nch_mac l=35.0n w=280.0n m=1
MM13 net028 A2 net024 VSS nch_mac l=35.0n w=280.0n m=1
MM14 net26 A1 net028 VSS nch_mac l=35.0n w=280.0n m=1
MM12 net024 A3 VSS VSS nch_mac l=35.0n w=280.0n m=1
MM5 Z net26 VSS VSS nch_mac l=35.0n w=280.0n m=4
MM10 net26 A2 VDD VDD pch_mac l=35.0n w=340.0n m=2
MM4 Z net26 VDD VDD pch_mac l=35.0n w=340.0n m=4
MM15 net26 A3 VDD VDD pch_mac l=35.0n w=340.0n m=2
MM11 net26 A1 VDD VDD pch_mac l=35.0n w=340.0n m=2
.ends
.subckt AN3D6BWP35 A1 A2 A3 Z VDD VSS
MM0 net048 A2 net040 VSS nch_mac l=35.0n w=280.0n m=1
MM1 net26 A1 net048 VSS nch_mac l=35.0n w=280.0n m=1
MM2 net040 A3 VSS VSS nch_mac l=35.0n w=280.0n m=1
MM13 net028 A2 net024 VSS nch_mac l=35.0n w=280.0n m=1
MM14 net26 A1 net028 VSS nch_mac l=35.0n w=280.0n m=1
MM12 net024 A3 VSS VSS nch_mac l=35.0n w=280.0n m=1
MM5 Z net26 VSS VSS nch_mac l=35.0n w=280.0n m=6
MM10 net26 A2 VDD VDD pch_mac l=35.0n w=340.0n m=2
MM4 Z net26 VDD VDD pch_mac l=35.0n w=340.0n m=6
MM15 net26 A3 VDD VDD pch_mac l=35.0n w=340.0n m=2
MM11 net26 A1 VDD VDD pch_mac l=35.0n w=340.0n m=2
.ends
.subckt AN3D8BWP35 A1 A2 A3 Z VDD VSS
MM13 net028 A2 net024 VSS nch_mac l=35.0n w=280.0n m=3
MM14 net26 A1 net028 VSS nch_mac l=35.0n w=280.0n m=3
MM12 net024 A3 VSS VSS nch_mac l=35.0n w=280.0n m=3
MM5 Z net26 VSS VSS nch_mac l=35.0n w=280.0n m=8
MM10 net26 A2 VDD VDD pch_mac l=35.0n w=340.0n m=3
MM4 Z net26 VDD VDD pch_mac l=35.0n w=340.0n m=8
MM15 net26 A3 VDD VDD pch_mac l=35.0n w=340.0n m=3
MM11 net26 A1 VDD VDD pch_mac l=35.0n w=340.0n m=3
.ends
.subckt AN3XD0BWP35 A1 A2 A3 Z VDD VSS
MM13 net028 A2 net024 VSS nch_mac l=35.0n w=140.0n m=1
MM14 net26 A1 net028 VSS nch_mac l=35.0n w=140.0n m=1
MM12 net024 A3 VSS VSS nch_mac l=35.0n w=140.0n m=1
MM5 Z net26 VSS VSS nch_mac l=35.0n w=140.0n m=1
MM10 net26 A2 VDD VDD pch_mac l=35.0n w=170.0n m=1
MM4 Z net26 VDD VDD pch_mac l=35.0n w=170.0n m=1
MM15 net26 A3 VDD VDD pch_mac l=35.0n w=170.0n m=1
MM11 net26 A1 VDD VDD pch_mac l=35.0n w=170.0n m=1
.ends
.subckt AN3XD16BWP35 A1 A2 A3 Z VDD VSS
MM13 net028 A2 net024 VSS nch_mac l=35.0n w=280.0n m=8
MM14 net26 A1 net028 VSS nch_mac l=35.0n w=280.0n m=8
MM12 net024 A3 VSS VSS nch_mac l=35.0n w=280.0n m=8
MM5 Z net26 VSS VSS nch_mac l=35.0n w=280.0n m=16
MM10 net26 A2 VDD VDD pch_mac l=35.0n w=340.0n m=8
MM4 Z net26 VDD VDD pch_mac l=35.0n w=340.0n m=16
MM15 net26 A3 VDD VDD pch_mac l=35.0n w=340.0n m=8
MM11 net26 A1 VDD VDD pch_mac l=35.0n w=340.0n m=8
.ends
.subckt AN3XD1BWP35 A1 A2 A3 Z VDD VSS
MM13 net028 A2 net024 VSS nch_mac l=35.0n w=280.0n m=1
MM14 net26 A1 net028 VSS nch_mac l=35.0n w=280.0n m=1
MM12 net024 A3 VSS VSS nch_mac l=35.0n w=280.0n m=1
MM5 Z net26 VSS VSS nch_mac l=35.0n w=280.0n m=1
MM10 net26 A2 VDD VDD pch_mac l=35.0n w=340.0n m=1
MM4 Z net26 VDD VDD pch_mac l=35.0n w=340.0n m=1
MM15 net26 A3 VDD VDD pch_mac l=35.0n w=340.0n m=1
MM11 net26 A1 VDD VDD pch_mac l=35.0n w=340.0n m=1
.ends
.subckt AN3XD2BWP35 A1 A2 A3 Z VDD VSS
MM13 net028 A2 net024 VSS nch_mac l=35.0n w=280.0n m=1
MM14 net26 A1 net028 VSS nch_mac l=35.0n w=280.0n m=1
MM12 net024 A3 VSS VSS nch_mac l=35.0n w=280.0n m=1
MM5 Z net26 VSS VSS nch_mac l=35.0n w=280.0n m=2
MM10 net26 A2 VDD VDD pch_mac l=35.0n w=340.0n m=1
MM4 Z net26 VDD VDD pch_mac l=35.0n w=340.0n m=2
MM15 net26 A3 VDD VDD pch_mac l=35.0n w=340.0n m=1
MM11 net26 A1 VDD VDD pch_mac l=35.0n w=340.0n m=1
.ends
.subckt AN3XD4BWP35 A1 A2 A3 Z VDD VSS
MM0 net048 A2 net040 VSS nch_mac l=35.0n w=280.0n m=1
MM1 net26 A1 net048 VSS nch_mac l=35.0n w=280.0n m=1
MM2 net040 A3 VSS VSS nch_mac l=35.0n w=280.0n m=1
MM13 net028 A2 net024 VSS nch_mac l=35.0n w=280.0n m=1
MM14 net26 A1 net028 VSS nch_mac l=35.0n w=280.0n m=1
MM12 net024 A3 VSS VSS nch_mac l=35.0n w=280.0n m=1
MM5 Z net26 VSS VSS nch_mac l=35.0n w=280.0n m=4
MM10 net26 A2 VDD VDD pch_mac l=35.0n w=340.0n m=2
MM4 Z net26 VDD VDD pch_mac l=35.0n w=340.0n m=4
MM15 net26 A3 VDD VDD pch_mac l=35.0n w=340.0n m=2
MM11 net26 A1 VDD VDD pch_mac l=35.0n w=340.0n m=2
.ends
.subckt AN3XD6BWP35 A1 A2 A3 Z VDD VSS
MM13 net028 A2 net024 VSS nch_mac l=35.0n w=280.0n m=3
MM14 net26 A1 net028 VSS nch_mac l=35.0n w=280.0n m=3
MM12 net024 A3 VSS VSS nch_mac l=35.0n w=280.0n m=3
MM5 Z net26 VSS VSS nch_mac l=35.0n w=280.0n m=6
MM10 net26 A2 VDD VDD pch_mac l=35.0n w=340.0n m=3
MM4 Z net26 VDD VDD pch_mac l=35.0n w=340.0n m=6
MM15 net26 A3 VDD VDD pch_mac l=35.0n w=340.0n m=3
MM11 net26 A1 VDD VDD pch_mac l=35.0n w=340.0n m=3
.ends
.subckt AN3XD8BWP35 A1 A2 A3 Z VDD VSS
MM13 net028 A2 net024 VSS nch_mac l=35.0n w=280.0n m=4
MM14 net26 A1 net028 VSS nch_mac l=35.0n w=280.0n m=4
MM12 net024 A3 VSS VSS nch_mac l=35.0n w=280.0n m=4
MM5 Z net26 VSS VSS nch_mac l=35.0n w=280.0n m=8
MM10 net26 A2 VDD VDD pch_mac l=35.0n w=340.0n m=4
MM4 Z net26 VDD VDD pch_mac l=35.0n w=340.0n m=8
MM15 net26 A3 VDD VDD pch_mac l=35.0n w=340.0n m=4
MM11 net26 A1 VDD VDD pch_mac l=35.0n w=340.0n m=4
.ends
.subckt AN4D0BWP35 A1 A2 A3 A4 Z VDD VSS
MM5 Z net26 VSS VSS nch_mac l=35.0n w=140.0n m=1
MM22 net26 A1 net030 VSS nch_mac l=35.0n w=140.0n m=1
MM20 net034 A3 net038 VSS nch_mac l=35.0n w=140.0n m=1
MM19 net030 A2 net034 VSS nch_mac l=35.0n w=140.0n m=1
MM21 net038 A4 VSS VSS nch_mac l=35.0n w=140.0n m=1
MM23 net26 A4 VDD VDD pch_mac l=35.0n w=170.0n m=1
MM4 Z net26 VDD VDD pch_mac l=35.0n w=170.0n m=1
MM16 net26 A3 VDD VDD pch_mac l=35.0n w=170.0n m=1
MM17 net26 A1 VDD VDD pch_mac l=35.0n w=170.0n m=1
MM18 net26 A2 VDD VDD pch_mac l=35.0n w=170.0n m=1
.ends
.subckt AN4D1BWP35 A1 A2 A3 A4 Z VDD VSS
MM5 Z net26 VSS VSS nch_mac l=35.0n w=280.0n m=1
MM22 net26 A1 net030 VSS nch_mac l=35.0n w=140.0n m=1
MM20 net034 A3 net038 VSS nch_mac l=35.0n w=140.0n m=1
MM19 net030 A2 net034 VSS nch_mac l=35.0n w=140.0n m=1
MM21 net038 A4 VSS VSS nch_mac l=35.0n w=140.0n m=1
MM23 net26 A4 VDD VDD pch_mac l=35.0n w=170.0n m=1
MM4 Z net26 VDD VDD pch_mac l=35.0n w=340.0n m=1
MM16 net26 A3 VDD VDD pch_mac l=35.0n w=170.0n m=1
MM17 net26 A1 VDD VDD pch_mac l=35.0n w=170.0n m=1
MM18 net26 A2 VDD VDD pch_mac l=35.0n w=170.0n m=1
.ends
.subckt AN4D2BWP35 A1 A2 A3 A4 Z VDD VSS
MM5 Z net26 VSS VSS nch_mac l=35.0n w=280.0n m=2
MM22 net26 A1 net030 VSS nch_mac l=35.0n w=280.0n m=1
MM20 net034 A3 net038 VSS nch_mac l=35.0n w=280.0n m=1
MM19 net030 A2 net034 VSS nch_mac l=35.0n w=280.0n m=1
MM21 net038 A4 VSS VSS nch_mac l=35.0n w=280.0n m=1
MM23 net26 A4 VDD VDD pch_mac l=35.0n w=340.0n m=1
MM4 Z net26 VDD VDD pch_mac l=35.0n w=340.0n m=2
MM16 net26 A3 VDD VDD pch_mac l=35.0n w=340.0n m=1
MM17 net26 A1 VDD VDD pch_mac l=35.0n w=340.0n m=1
MM18 net26 A2 VDD VDD pch_mac l=35.0n w=340.0n m=1
.ends
.subckt AN4D4BWP35 A1 A2 A3 A4 Z VDD VSS
MM0 net26 A1 net037 VSS nch_mac l=35.0n w=280.0n m=1
MM1 net041 A3 net033 VSS nch_mac l=35.0n w=280.0n m=1
MM2 net037 A2 net041 VSS nch_mac l=35.0n w=280.0n m=1
MM3 net033 A4 VSS VSS nch_mac l=35.0n w=280.0n m=1
MM5 Z net26 VSS VSS nch_mac l=35.0n w=280.0n m=4
MM22 net26 A1 net030 VSS nch_mac l=35.0n w=280.0n m=1
MM20 net034 A3 net038 VSS nch_mac l=35.0n w=280.0n m=1
MM19 net030 A2 net034 VSS nch_mac l=35.0n w=280.0n m=1
MM21 net038 A4 VSS VSS nch_mac l=35.0n w=280.0n m=1
MM23 net26 A4 VDD VDD pch_mac l=35.0n w=340.0n m=2
MM4 Z net26 VDD VDD pch_mac l=35.0n w=340.0n m=4
MM16 net26 A3 VDD VDD pch_mac l=35.0n w=340.0n m=2
MM17 net26 A1 VDD VDD pch_mac l=35.0n w=340.0n m=2
MM18 net26 A2 VDD VDD pch_mac l=35.0n w=340.0n m=2
.ends
.subckt AN4D8BWP35 A1 A2 A3 A4 Z VDD VSS
MM5 Z net26 VSS VSS nch_mac l=35.0n w=280.0n m=8
MM22 net26 A1 net030 VSS nch_mac l=35.0n w=280.0n m=3
MM20 net034 A3 net038 VSS nch_mac l=35.0n w=280.0n m=3
MM19 net030 A2 net034 VSS nch_mac l=35.0n w=280.0n m=3
MM21 net038 A4 VSS VSS nch_mac l=35.0n w=280.0n m=3
MM23 net26 A4 VDD VDD pch_mac l=35.0n w=340.0n m=3
MM4 Z net26 VDD VDD pch_mac l=35.0n w=340.0n m=8
MM16 net26 A3 VDD VDD pch_mac l=35.0n w=340.0n m=3
MM17 net26 A1 VDD VDD pch_mac l=35.0n w=340.0n m=3
MM18 net26 A2 VDD VDD pch_mac l=35.0n w=340.0n m=3
.ends
.subckt AN4XD1BWP35 A1 A2 A3 A4 Z VDD VSS
MM5 Z net26 VSS VSS nch_mac l=35.0n w=280.0n m=1
MM22 net26 A1 net030 VSS nch_mac l=35.0n w=280.0n m=1
MM20 net034 A3 net038 VSS nch_mac l=35.0n w=280.0n m=1
MM19 net030 A2 net034 VSS nch_mac l=35.0n w=280.0n m=1
MM21 net038 A4 VSS VSS nch_mac l=35.0n w=280.0n m=1
MM23 net26 A4 VDD VDD pch_mac l=35.0n w=340.0n m=1
MM4 Z net26 VDD VDD pch_mac l=35.0n w=340.0n m=1
MM16 net26 A3 VDD VDD pch_mac l=35.0n w=340.0n m=1
MM17 net26 A1 VDD VDD pch_mac l=35.0n w=340.0n m=1
MM18 net26 A2 VDD VDD pch_mac l=35.0n w=340.0n m=1
.ends
.subckt ANTENNABWP35 I VDD VSS
DD0 VSS I ndio area=5.04e-14 pj=9.2e-07 m=1
.ends
.subckt AO211D0BWP35 A1 A2 B C Z VDD VSS
MM5 Z net44 VSS VSS nch_mac l=35.0n w=140.0n m=1
MM0 net44 C VSS VSS nch_mac l=35.0n w=140.0n m=1
MM3 net44 B VSS VSS nch_mac l=35.0n w=140.0n m=1
MM8 net44 A1 net24 VSS nch_mac l=35.0n w=140.0n m=1
MM9 net24 A2 VSS VSS nch_mac l=35.0n w=140.0n m=1
MM4 Z net44 VDD VDD pch_mac l=35.0n w=170.0n m=1
MM1 net39 C VDD VDD pch_mac l=35.0n w=170.0n m=1
MM2 net47 B net39 VDD pch_mac l=35.0n w=170.0n m=1
MM6 net44 A1 net47 VDD pch_mac l=35.0n w=170.0n m=1
MM7 net44 A2 net47 VDD pch_mac l=35.0n w=170.0n m=1
.ends
.subckt AO211D1BWP35 A1 A2 B C Z VDD VSS
MM5 Z net44 VSS VSS nch_mac l=35.0n w=280.0n m=1
MM0 net44 C VSS VSS nch_mac l=35.0n w=280.0n m=1
MM3 net44 B VSS VSS nch_mac l=35.0n w=280.0n m=1
MM8 net44 A1 net24 VSS nch_mac l=35.0n w=280.0n m=1
MM9 net24 A2 VSS VSS nch_mac l=35.0n w=280.0n m=1
MM4 Z net44 VDD VDD pch_mac l=35.0n w=340.0n m=1
MM1 net39 C VDD VDD pch_mac l=35.0n w=340.0n m=1
MM2 net47 B net39 VDD pch_mac l=35.0n w=340.0n m=1
MM6 net44 A1 net47 VDD pch_mac l=35.0n w=340.0n m=1
MM7 net44 A2 net47 VDD pch_mac l=35.0n w=340.0n m=1
.ends
.subckt AO211D2BWP35 A1 A2 B C Z VDD VSS
MM5 Z net44 VSS VSS nch_mac l=35.0n w=280.0n m=2
MM0 net44 C VSS VSS nch_mac l=35.0n w=280.0n m=1
MM3 net44 B VSS VSS nch_mac l=35.0n w=280.0n m=1
MM8 net44 A1 net24 VSS nch_mac l=35.0n w=280.0n m=1
MM9 net24 A2 VSS VSS nch_mac l=35.0n w=280.0n m=1
MM4 Z net44 VDD VDD pch_mac l=35.0n w=340.0n m=2
MM1 net39 C VDD VDD pch_mac l=35.0n w=340.0n m=1
MM2 net47 B net39 VDD pch_mac l=35.0n w=340.0n m=1
MM6 net44 A1 net47 VDD pch_mac l=35.0n w=340.0n m=1
MM7 net44 A2 net47 VDD pch_mac l=35.0n w=340.0n m=1
.ends
.subckt AO211D4BWP35 A1 A2 B C Z VDD VSS
MM12 net44 A1 net034 VSS nch_mac l=35.0n w=280.0n m=1
MM13 net034 A2 VSS VSS nch_mac l=35.0n w=280.0n m=1
MM5 Z net44 VSS VSS nch_mac l=35.0n w=280.0n m=4
MM0 net44 C VSS VSS nch_mac l=35.0n w=280.0n m=2
MM3 net44 B VSS VSS nch_mac l=35.0n w=280.0n m=2
MM8 net44 A1 net24 VSS nch_mac l=35.0n w=280.0n m=1
MM9 net24 A2 VSS VSS nch_mac l=35.0n w=280.0n m=1
MM10 net065 C VDD VDD pch_mac l=35.0n w=340.0n m=1
MM11 net47 B net065 VDD pch_mac l=35.0n w=340.0n m=1
MM4 Z net44 VDD VDD pch_mac l=35.0n w=340.0n m=4
MM1 net39 C VDD VDD pch_mac l=35.0n w=340.0n m=1
MM2 net47 B net39 VDD pch_mac l=35.0n w=340.0n m=1
MM6 net44 A1 net47 VDD pch_mac l=35.0n w=340.0n m=2
MM7 net44 A2 net47 VDD pch_mac l=35.0n w=340.0n m=2
.ends
.subckt AO21D0BWP35 A1 A2 B Z VDD VSS
MM2 net7 A2 VSS VSS nch_mac l=35.0n w=140.0n m=1
MM1 net11 A1 net7 VSS nch_mac l=35.0n w=140.0n m=1
MM0 net11 B VSS VSS nch_mac l=35.0n w=140.0n m=1
MM5 Z net11 VSS VSS nch_mac l=35.0n w=140.0n m=1
MM7 net34 B VDD VDD pch_mac l=35.0n w=170.0n m=1
MM6 net11 A2 net34 VDD pch_mac l=35.0n w=170.0n m=1
MM3 net11 A1 net34 VDD pch_mac l=35.0n w=170.0n m=1
MM4 Z net11 VDD VDD pch_mac l=35.0n w=170.0n m=1
.ends
.subckt AO21D1BWP35 A1 A2 B Z VDD VSS
MM2 net7 A2 VSS VSS nch_mac l=35.0n w=280.0n m=1
MM1 net11 A1 net7 VSS nch_mac l=35.0n w=280.0n m=1
MM0 net11 B VSS VSS nch_mac l=35.0n w=280.0n m=1
MM5 Z net11 VSS VSS nch_mac l=35.0n w=280.0n m=1
MM7 net34 B VDD VDD pch_mac l=35.0n w=340.0n m=1
MM6 net11 A2 net34 VDD pch_mac l=35.0n w=340.0n m=1
MM3 net11 A1 net34 VDD pch_mac l=35.0n w=340.0n m=1
MM4 Z net11 VDD VDD pch_mac l=35.0n w=340.0n m=1
.ends
.subckt AO21D2BWP35 A1 A2 B Z VDD VSS
MM2 net7 A2 VSS VSS nch_mac l=35.0n w=280.0n m=1
MM1 net11 A1 net7 VSS nch_mac l=35.0n w=280.0n m=1
MM0 net11 B VSS VSS nch_mac l=35.0n w=280.0n m=1
MM5 Z net11 VSS VSS nch_mac l=35.0n w=280.0n m=2
MM7 net34 B VDD VDD pch_mac l=35.0n w=340.0n m=1
MM6 net11 A2 net34 VDD pch_mac l=35.0n w=340.0n m=1
MM3 net11 A1 net34 VDD pch_mac l=35.0n w=340.0n m=1
MM4 Z net11 VDD VDD pch_mac l=35.0n w=340.0n m=2
.ends
.subckt AO21D4BWP35 A1 A2 B Z VDD VSS
MM8 net034 A2 VSS VSS nch_mac l=35.0n w=280.0n m=1
MM9 net11 A1 net034 VSS nch_mac l=35.0n w=280.0n m=1
MM2 net7 A2 VSS VSS nch_mac l=35.0n w=280.0n m=1
MM1 net11 A1 net7 VSS nch_mac l=35.0n w=280.0n m=1
MM0 net11 B VSS VSS nch_mac l=35.0n w=280.0n m=2
MM5 Z net11 VSS VSS nch_mac l=35.0n w=280.0n m=4
MM7 net34 B VDD VDD pch_mac l=35.0n w=340.0n m=2
MM6 net11 A2 net34 VDD pch_mac l=35.0n w=340.0n m=2
MM3 net11 A1 net34 VDD pch_mac l=35.0n w=340.0n m=2
MM4 Z net11 VDD VDD pch_mac l=35.0n w=340.0n m=4
.ends
.subckt AO221D0BWP35 A1 A2 B1 B2 C Z VDD VSS
MM10 Z net53 VSS VSS nch_mac l=35.0n w=140.0n m=1
MM5 net53 C VSS VSS nch_mac l=35.0n w=140.0n m=1
MM1 net17 B2 VSS VSS nch_mac l=35.0n w=140.0n m=1
MM0 net53 B1 net17 VSS nch_mac l=35.0n w=140.0n m=1
MM8 net53 A1 net29 VSS nch_mac l=35.0n w=140.0n m=1
MM9 net29 A2 VSS VSS nch_mac l=35.0n w=140.0n m=1
MM11 Z net53 VDD VDD pch_mac l=35.0n w=170.0n m=1
MM4 net36 C VDD VDD pch_mac l=35.0n w=170.0n m=1
MM3 net56 B2 net36 VDD pch_mac l=35.0n w=170.0n m=1
MM2 net56 B1 net36 VDD pch_mac l=35.0n w=170.0n m=1
MM6 net53 A1 net56 VDD pch_mac l=35.0n w=170.0n m=1
MM7 net53 A2 net56 VDD pch_mac l=35.0n w=170.0n m=1
.ends
.subckt AO221D1BWP35 A1 A2 B1 B2 C Z VDD VSS
MM10 Z net53 VSS VSS nch_mac l=35.0n w=280.0n m=1
MM5 net53 C VSS VSS nch_mac l=35.0n w=280.0n m=1
MM1 net17 B2 VSS VSS nch_mac l=35.0n w=280.0n m=1
MM0 net53 B1 net17 VSS nch_mac l=35.0n w=280.0n m=1
MM8 net53 A1 net29 VSS nch_mac l=35.0n w=280.0n m=1
MM9 net29 A2 VSS VSS nch_mac l=35.0n w=280.0n m=1
MM11 Z net53 VDD VDD pch_mac l=35.0n w=340.0n m=1
MM4 net36 C VDD VDD pch_mac l=35.0n w=340.0n m=1
MM3 net56 B2 net36 VDD pch_mac l=35.0n w=340.0n m=1
MM2 net56 B1 net36 VDD pch_mac l=35.0n w=340.0n m=1
MM6 net53 A1 net56 VDD pch_mac l=35.0n w=340.0n m=1
MM7 net53 A2 net56 VDD pch_mac l=35.0n w=340.0n m=1
.ends
.subckt AO221D2BWP35 A1 A2 B1 B2 C Z VDD VSS
MM10 Z net53 VSS VSS nch_mac l=35.0n w=280.0n m=2
MM5 net53 C VSS VSS nch_mac l=35.0n w=280.0n m=1
MM1 net17 B2 VSS VSS nch_mac l=35.0n w=280.0n m=1
MM0 net53 B1 net17 VSS nch_mac l=35.0n w=280.0n m=1
MM8 net53 A1 net29 VSS nch_mac l=35.0n w=280.0n m=1
MM9 net29 A2 VSS VSS nch_mac l=35.0n w=280.0n m=1
MM11 Z net53 VDD VDD pch_mac l=35.0n w=340.0n m=2
MM4 net36 C VDD VDD pch_mac l=35.0n w=340.0n m=1
MM3 net56 B2 net36 VDD pch_mac l=35.0n w=340.0n m=1
MM2 net56 B1 net36 VDD pch_mac l=35.0n w=340.0n m=1
MM6 net53 A1 net56 VDD pch_mac l=35.0n w=340.0n m=1
MM7 net53 A2 net56 VDD pch_mac l=35.0n w=340.0n m=1
.ends
.subckt AO221D4BWP35 A1 A2 B1 B2 C Z VDD VSS
MM12 net53 A1 net043 VSS nch_mac l=35.0n w=280.0n m=1
MM13 net043 A2 VSS VSS nch_mac l=35.0n w=280.0n m=1
MM14 net039 B2 VSS VSS nch_mac l=35.0n w=280.0n m=1
MM15 net53 B1 net039 VSS nch_mac l=35.0n w=280.0n m=1
MM10 Z net53 VSS VSS nch_mac l=35.0n w=280.0n m=4
MM5 net53 C VSS VSS nch_mac l=35.0n w=280.0n m=2
MM1 net17 B2 VSS VSS nch_mac l=35.0n w=280.0n m=1
MM0 net53 B1 net17 VSS nch_mac l=35.0n w=280.0n m=1
MM8 net53 A1 net29 VSS nch_mac l=35.0n w=280.0n m=1
MM9 net29 A2 VSS VSS nch_mac l=35.0n w=280.0n m=1
MM11 Z net53 VDD VDD pch_mac l=35.0n w=340.0n m=4
MM4 net36 C VDD VDD pch_mac l=35.0n w=340.0n m=2
MM3 net56 B2 net36 VDD pch_mac l=35.0n w=340.0n m=2
MM2 net56 B1 net36 VDD pch_mac l=35.0n w=340.0n m=2
MM6 net53 A1 net56 VDD pch_mac l=35.0n w=340.0n m=2
MM7 net53 A2 net56 VDD pch_mac l=35.0n w=340.0n m=2
.ends
.subckt AO222D0BWP35 A1 A2 B1 B2 C1 C2 Z VDD VSS
MM12 net22 C1 net38 VSS nch_mac l=35.0n w=140.0n m=1
MM13 net38 C2 VSS VSS nch_mac l=35.0n w=140.0n m=1
MM9 net50 A2 VSS VSS nch_mac l=35.0n w=140.0n m=1
MM8 net22 A1 net50 VSS nch_mac l=35.0n w=140.0n m=1
MM0 net22 B1 net62 VSS nch_mac l=35.0n w=140.0n m=1
MM1 net62 B2 VSS VSS nch_mac l=35.0n w=140.0n m=1
MM10 Z net22 VSS VSS nch_mac l=35.0n w=140.0n m=1
MM4 net37 C1 VDD VDD pch_mac l=35.0n w=170.0n m=1
MM5 net37 C2 VDD VDD pch_mac l=35.0n w=170.0n m=1
MM7 net22 A2 net25 VDD pch_mac l=35.0n w=170.0n m=1
MM6 net22 A1 net25 VDD pch_mac l=35.0n w=170.0n m=1
MM11 Z net22 VDD VDD pch_mac l=35.0n w=170.0n m=1
MM2 net25 B1 net37 VDD pch_mac l=35.0n w=170.0n m=1
MM3 net25 B2 net37 VDD pch_mac l=35.0n w=170.0n m=1
.ends
.subckt AO222D1BWP35 A1 A2 B1 B2 C1 C2 Z VDD VSS
MM12 net22 C1 net38 VSS nch_mac l=35.0n w=280.0n m=1
MM13 net38 C2 VSS VSS nch_mac l=35.0n w=280.0n m=1
MM9 net50 A2 VSS VSS nch_mac l=35.0n w=280.0n m=1
MM8 net22 A1 net50 VSS nch_mac l=35.0n w=280.0n m=1
MM0 net22 B1 net62 VSS nch_mac l=35.0n w=280.0n m=1
MM1 net62 B2 VSS VSS nch_mac l=35.0n w=280.0n m=1
MM10 Z net22 VSS VSS nch_mac l=35.0n w=280.0n m=1
MM4 net37 C1 VDD VDD pch_mac l=35.0n w=340.0n m=1
MM5 net37 C2 VDD VDD pch_mac l=35.0n w=340.0n m=1
MM7 net22 A2 net25 VDD pch_mac l=35.0n w=340.0n m=1
MM6 net22 A1 net25 VDD pch_mac l=35.0n w=340.0n m=1
MM11 Z net22 VDD VDD pch_mac l=35.0n w=340.0n m=1
MM2 net25 B1 net37 VDD pch_mac l=35.0n w=340.0n m=1
MM3 net25 B2 net37 VDD pch_mac l=35.0n w=340.0n m=1
.ends
.subckt AO222D2BWP35 A1 A2 B1 B2 C1 C2 Z VDD VSS
MM12 net22 C1 net38 VSS nch_mac l=35.0n w=280.0n m=1
MM13 net38 C2 VSS VSS nch_mac l=35.0n w=280.0n m=1
MM9 net50 A2 VSS VSS nch_mac l=35.0n w=280.0n m=1
MM8 net22 A1 net50 VSS nch_mac l=35.0n w=280.0n m=1
MM0 net22 B1 net62 VSS nch_mac l=35.0n w=280.0n m=1
MM1 net62 B2 VSS VSS nch_mac l=35.0n w=280.0n m=1
MM10 Z net22 VSS VSS nch_mac l=35.0n w=280.0n m=2
MM4 net37 C1 VDD VDD pch_mac l=35.0n w=340.0n m=1
MM5 net37 C2 VDD VDD pch_mac l=35.0n w=340.0n m=1
MM7 net22 A2 net25 VDD pch_mac l=35.0n w=340.0n m=1
MM6 net22 A1 net25 VDD pch_mac l=35.0n w=340.0n m=1
MM11 Z net22 VDD VDD pch_mac l=35.0n w=340.0n m=2
MM2 net25 B1 net37 VDD pch_mac l=35.0n w=340.0n m=1
MM3 net25 B2 net37 VDD pch_mac l=35.0n w=340.0n m=1
.ends
.subckt AO222D4BWP35 A1 A2 B1 B2 C1 C2 Z VDD VSS
MM14 net22 B1 net084 VSS nch_mac l=35.0n w=280.0n m=1
MM15 net084 B2 VSS VSS nch_mac l=35.0n w=280.0n m=1
MM16 net22 C1 net076 VSS nch_mac l=35.0n w=280.0n m=1
MM17 net076 C2 VSS VSS nch_mac l=35.0n w=280.0n m=1
MM18 net072 A2 VSS VSS nch_mac l=35.0n w=280.0n m=1
MM19 net22 A1 net072 VSS nch_mac l=35.0n w=280.0n m=1
MM12 net22 C1 net38 VSS nch_mac l=35.0n w=280.0n m=1
MM13 net38 C2 VSS VSS nch_mac l=35.0n w=280.0n m=1
MM9 net50 A2 VSS VSS nch_mac l=35.0n w=280.0n m=1
MM8 net22 A1 net50 VSS nch_mac l=35.0n w=280.0n m=1
MM0 net22 B1 net62 VSS nch_mac l=35.0n w=280.0n m=1
MM1 net62 B2 VSS VSS nch_mac l=35.0n w=280.0n m=1
MM10 Z net22 VSS VSS nch_mac l=35.0n w=280.0n m=4
MM4 net37 C1 VDD VDD pch_mac l=35.0n w=340.0n m=2
MM5 net37 C2 VDD VDD pch_mac l=35.0n w=340.0n m=2
MM7 net22 A2 net25 VDD pch_mac l=35.0n w=340.0n m=2
MM6 net22 A1 net25 VDD pch_mac l=35.0n w=340.0n m=2
MM11 Z net22 VDD VDD pch_mac l=35.0n w=340.0n m=4
MM2 net25 B1 net37 VDD pch_mac l=35.0n w=340.0n m=2
MM3 net25 B2 net37 VDD pch_mac l=35.0n w=340.0n m=2
.ends
.subckt AO22D0BWP35 A1 A2 B1 B2 Z VDD VSS
MM9 net12 A2 VSS VSS nch_mac l=35.0n w=135.00n m=1
MM8 net16 B2 VSS VSS nch_mac l=35.0n w=140.0n m=1
MM7 net24 B1 net16 VSS nch_mac l=35.0n w=140.0n m=1
MM6 net24 A1 net12 VSS nch_mac l=35.0n w=135.00n m=1
MM5 Z net24 VSS VSS nch_mac l=35.0n w=140.0n m=1
MM3 net24 A2 net39 VDD pch_mac l=35.0n w=170.0n m=1
MM2 net24 A1 net39 VDD pch_mac l=35.0n w=170.0n m=1
MM1 net39 B2 VDD VDD pch_mac l=35.0n w=170.0n m=1
MM0 net39 B1 VDD VDD pch_mac l=35.0n w=170.0n m=1
MM4 Z net24 VDD VDD pch_mac l=35.0n w=170.0n m=1
.ends
.subckt AO22D16BWP35 A1 A2 B1 B2 Z VDD VSS
MM9 net12 A2 VSS VSS nch_mac l=35.0n w=280.0n m=5
MM8 net16 B2 VSS VSS nch_mac l=35.0n w=280.0n m=5
MM7 net24 B1 net16 VSS nch_mac l=35.0n w=280.0n m=5
MM6 net24 A1 net12 VSS nch_mac l=35.0n w=280.0n m=5
MM5 Z net24 VSS VSS nch_mac l=35.0n w=280.0n m=16
MM3 net24 A2 net39 VDD pch_mac l=35.0n w=340.0n m=5
MM2 net24 A1 net39 VDD pch_mac l=35.0n w=340.0n m=5
MM1 net39 B2 VDD VDD pch_mac l=35.0n w=340.0n m=5
MM0 net39 B1 VDD VDD pch_mac l=35.0n w=340.0n m=5
MM4 Z net24 VDD VDD pch_mac l=35.0n w=340.0n m=16
.ends
.subckt AO22D1BWP35 A1 A2 B1 B2 Z VDD VSS
MM9 net12 A2 VSS VSS nch_mac l=35.0n w=280.0n m=1
MM8 net16 B2 VSS VSS nch_mac l=35.0n w=280.0n m=1
MM7 net24 B1 net16 VSS nch_mac l=35.0n w=280.0n m=1
MM6 net24 A1 net12 VSS nch_mac l=35.0n w=280.0n m=1
MM5 Z net24 VSS VSS nch_mac l=35.0n w=280.0n m=1
MM3 net24 A2 net39 VDD pch_mac l=35.0n w=340.0n m=1
MM2 net24 A1 net39 VDD pch_mac l=35.0n w=340.0n m=1
MM1 net39 B2 VDD VDD pch_mac l=35.0n w=340.0n m=1
MM0 net39 B1 VDD VDD pch_mac l=35.0n w=340.0n m=1
MM4 Z net24 VDD VDD pch_mac l=35.0n w=340.0n m=1
.ends
.subckt AO22D2BWP35 A1 A2 B1 B2 Z VDD VSS
MM9 net12 A2 VSS VSS nch_mac l=35.0n w=280.0n m=1
MM8 net16 B2 VSS VSS nch_mac l=35.0n w=280.0n m=1
MM7 net24 B1 net16 VSS nch_mac l=35.0n w=280.0n m=1
MM6 net24 A1 net12 VSS nch_mac l=35.0n w=280.0n m=1
MM5 Z net24 VSS VSS nch_mac l=35.0n w=280.0n m=2
MM3 net24 A2 net39 VDD pch_mac l=35.0n w=340.0n m=1
MM2 net24 A1 net39 VDD pch_mac l=35.0n w=340.0n m=1
MM1 net39 B2 VDD VDD pch_mac l=35.0n w=340.0n m=1
MM0 net39 B1 VDD VDD pch_mac l=35.0n w=340.0n m=1
MM4 Z net24 VDD VDD pch_mac l=35.0n w=340.0n m=2
.ends
.subckt AO22D4BWP35 A1 A2 B1 B2 Z VDD VSS
MM10 net050 A2 VSS VSS nch_mac l=35.0n w=280.0n m=1
MM11 net24 A1 net050 VSS nch_mac l=35.0n w=280.0n m=1
MM12 net042 B2 VSS VSS nch_mac l=35.0n w=280.0n m=1
MM13 net24 B1 net042 VSS nch_mac l=35.0n w=280.0n m=1